#======================================================================

# CRYSTAL DATA

#----------------------------------------------------------------------

data_VESTA_phase_1


_pd_phase_name                         'C16 H12 P Pt2 S20 '
_cell_length_a                         14.421(4)
_cell_length_b                         6.3390(15)
_cell_length_c                         36.613(9)
_cell_angle_alpha                      90
_cell_angle_beta                       97.189(3)
_cell_angle_gamma                      90
_symmetry_space_group_name_H-M         'C 2/c'
_symmetry_Int_Tables_number            15

loop_
_symmetry_equiv_pos_as_xyz
   'x, y, z'
   '-x, -y, -z'
   '-x, y, -z+1/2'
   'x, -y, z+1/2'
   'x+1/2, y+1/2, z'
   '-x+1/2, -y+1/2, -z'
   '-x+1/2, y+1/2, -z+1/2'
   'x+1/2, -y+1/2, z+1/2'

loop_
   _atom_site_label
   _atom_site_occupancy
   _atom_site_fract_x
   _atom_site_fract_y
   _atom_site_fract_z
   _atom_site_adp_type
   _atom_site_U_iso_or_equiv
   _atom_site_type_symbol
   Pt(1)      1.0     0.353270(10)  0.33224(3)    0.019590(10) Uiso  0.029130 Pt
   S(1)       1.0     0.29550(11)   0.5071(2)     0.06638(4)   Uiso  0.033971 S
   S(2)       1.0     0.36756(10)   0.0312(2)     0.05441(4)   Uiso  0.031940 S
   S(3)       1.0     0.34754(12)   0.6382(2)    -0.01337(4)   Uiso  0.034657 S
   S(4)       1.0     0.41915(12)   0.1675(2)    -0.02623(4)   Uiso  0.033958 S
   S(5)       1.0     0.26575(12)   0.3725(2)     0.14253(4)   Uiso  0.039833 S
   S(6)       1.0     0.32853(12)  -0.0521(2)     0.13211(4)   Uiso  0.039694 S
   S(7)       1.0     0.40200(11)   0.7439(2)    -0.08740(4)   Uiso  0.034969 S
   S(8)       1.0     0.46379(12)   0.3185(2)    -0.09973(4)   Uiso  0.037440 S
   S(9)       1.0     0.27161(14)   0.0713(4)     0.20466(5)   Uiso  0.055456 S
   S(10)      1.0     0.46832(16)   0.6429(4)    -0.15830(5)   Uiso  0.052663 S
   P(1)       1.0     0.500000      0.7224(4)     0.250000     Uiso  0.041342 P
   C(1)       1.0     0.2991(4)     0.3181(9)     0.09911(16)  Uiso  0.030032 C
   C(2)       1.0     0.3290(4)     0.1160(9)     0.09434(16)  Uiso  0.030472 C
   C(3)       1.0     0.3917(4)     0.5644(9)    -0.05223(16)  Uiso  0.029498 C
   C(4)       1.0     0.4219(4)     0.3614(9)    -0.05775(16)  Uiso  0.029042 C
   C(5)       1.0     0.2873(4)     0.1263(10)    0.16149(17)  Uiso  0.035159 C
   C(6)       1.0     0.4456(4)     0.5708(10)   -0.11718(16)  Uiso  0.032984 C
   C(7)       1.0     0.5337(7)     0.8838(14)    0.2142(2)    Uiso  0.062446 C
   C(8)       1.0     0.4040(5)     0.5617(13)    0.2329(2)    Uiso  0.063132 C
   H(1)       1.0     0.581700      0.808300      0.201600     Uiso  0.074000 H
   H(2)       1.0     0.560500      1.019500      0.224800     Uiso  0.074000 H
   H(3)       1.0     0.477600      0.914000      0.196100     Uiso  0.074000 H
   H(4)       1.0     0.344200      0.636700      0.235600     Uiso  0.077000 H
   H(5)       1.0     0.407000      0.427300      0.247300     Uiso  0.077000 H
   H(6)       1.0     0.406700      0.529100      0.206300     Uiso  0.077000 H

loop_
   _atom_site_aniso_label
   _atom_site_aniso_U_11
   _atom_site_aniso_U_22
   _atom_site_aniso_U_33
   _atom_site_aniso_U_12
   _atom_site_aniso_U_13
   _atom_site_aniso_U_23
   Pt(1)	 0.03789  0.02607  0.02481  0.00741  0.00934  0.00535
   S(1)	 0.04800  0.02900  0.02650  0.00880  0.01090  0.00340
   S(2)	 0.04130  0.02730  0.02780  0.00640  0.00660  0.00580
   S(3)	 0.05170  0.02730  0.02730  0.01050  0.01410  0.00580
   S(4)	 0.04620  0.02830  0.02910  0.00990  0.01150  0.00430
   S(5)	 0.04760  0.04760  0.02550  0.00690  0.00930  0.00100
   S(6)	 0.05420  0.03710  0.02780 -0.00050  0.00520  0.00900
   S(7)	 0.04730  0.02930  0.02960  0.00300  0.00990  0.00590
   S(8)	 0.04860  0.03570  0.03010  0.00570  0.01310 -0.00060
   S(9)	 0.06250  0.07550  0.03020 -0.00050  0.01300  0.01410
   S(10)	 0.07090  0.06100  0.02930 -0.00380  0.01890  0.00660
   P(1)	 0.05000  0.03760  0.03650  0.00000  0.00570  0.00000
   C(1)	 0.03100  0.03600  0.02300  0.00500  0.00300  0.00600
   C(2)	 0.03200  0.03300  0.02500 -0.00200 -0.00200  0.00200
   C(3)	 0.03600  0.02500  0.02700 -0.00400  0.00200  0.00300
   C(4)	 0.03400  0.03100  0.02300  0.00300  0.00700  0.00200
   C(5)	 0.03100  0.04300  0.03100 -0.00300  0.00200  0.00300
   C(6)	 0.03400  0.03800  0.02700 -0.00000  0.00400 -0.00000
   C(7)	 0.07600  0.05400  0.05600 -0.00600  0.00300  0.01800
   C(8)	 0.06600  0.06800  0.05900 -0.01600  0.02200 -0.01700
   H(1)	 0.00000  0.00000  0.00000  0.00000  0.00000  0.00000
   H(2)	 0.00000  0.00000  0.00000  0.00000  0.00000  0.00000
   H(3)	 0.00000  0.00000  0.00000  0.00000  0.00000  0.00000
   H(4)	 0.00000  0.00000  0.00000  0.00000  0.00000  0.00000
   H(5)	 0.00000  0.00000  0.00000  0.00000  0.00000  0.00000
   H(6)	 0.00000  0.00000  0.00000  0.00000  0.00000  0.00000
